Version 4
SHEET 1 1992 680
WIRE 64 48 16 48
WIRE 192 48 128 48
WIRE 400 48 272 48
WIRE 512 48 400 48
WIRE 672 48 576 48
WIRE 864 48 672 48
WIRE 864 64 864 48
WIRE 400 96 400 48
WIRE 672 112 672 48
WIRE 16 128 16 48
WIRE 352 176 304 176
WIRE 864 176 864 144
WIRE 304 192 304 176
WIRE 16 288 16 208
WIRE 304 288 304 272
WIRE 304 288 16 288
WIRE 400 288 400 192
WIRE 400 288 304 288
WIRE 672 288 672 176
WIRE 672 288 400 288
WIRE 864 288 864 256
WIRE 864 288 672 288
FLAG 400 48 Vsw
IOPIN 400 48 Out
FLAG 672 288 0
SYMBOL voltage 16 112 R0
SYMATTR InstName SOLAR
SYMATTR Value 90
SYMBOL ind 176 64 R270
WINDOW 0 32 56 VTop 2
WINDOW 3 5 56 VBottom 2
SYMATTR InstName L1
SYMATTR Value 1.2µ
SYMBOL nmos 352 96 R0
SYMATTR InstName M1
SYMATTR Value IPT015N10N5
SYMBOL voltage 304 176 R0
WINDOW 0 -97 58 Left 2
WINDOW 3 109 130 Right 2
WINDOW 123 0 0 Left 0
WINDOW 39 0 0 Left 0
SYMATTR InstName GATE
SYMATTR Value PULSE(0 15 0 1p 1p 0u 5u)
SYMBOL schottky 512 64 R270
WINDOW 0 32 32 VTop 2
WINDOW 3 0 32 VBottom 2
SYMATTR InstName D1
SYMATTR Value RB098BM150
SYMATTR Description Diode
SYMATTR Type diode
SYMBOL cap 656 112 R0
SYMATTR InstName C1
SYMATTR Value 470µ
SYMBOL voltage 864 160 R0
WINDOW 123 0 0 Left 0
WINDOW 39 0 0 Left 0
SYMATTR InstName V1
SYMATTR Value 80
SYMBOL res 848 48 R0
SYMATTR InstName R1
SYMATTR Value 0.1
SYMBOL diode 64 64 R270
WINDOW 0 32 32 VTop 2
WINDOW 3 0 32 VBottom 2
SYMATTR InstName D3
SYMATTR Value ID
TEXT 696 320 Left 2 ;Vo = Vs/(1-D)
TEXT 32 -128 Left 2 ;~IL = 0.3*Ioutmax * Vout/Vin = 20.6A\nL = (Vin*(Vout-Vin))/(Vout*fs *~IL) = 1.2uH
TEXT 152 336 Left 2 ;D = 1 - (Vin*eta)/Vout\n20V->120V : D = 0.83\n60V -> 102V: D = 0.47
TEXT -432 400 Left 2 !.model ID D(Ron = 0, Ilimit=0.33)
TEXT -426 424 Left 2 !.tran 1m
